SOLVER= RANS
KIND_TURB_MODEL= SA
SST_OPTIONS= NONE
SA_OPTIONS= NONE
KIND_TRANS_MODEL= LM
% HROUGHNESS= 1.0e-6
LM_OPTIONS= NONE
KIND_SGS_MODEL= NONE
% KIND_VERIFICATION_SOLUTION= NO_VERIFICATION_SOLUTION
MATH_PROBLEM= DIRECT
AXISYMMETRIC= NO
GRAVITY_FORCE= NO
RESTART_SOL= NO
DISCARD_INFILES= NO
SYSTEM_MEASUREMENTS= SI
% CONFIG_LIST= ()
ITER= 1
INNER_ITER= 200000
OUTER_ITER= 1
TIME_ITER= 1
CONV_FIELD= DRAG
CONV_RESIDUAL_MINVAL= -10
CONV_STARTITER= 10
CONV_CAUCHY_ELEMS= 100
CONV_CAUCHY_EPS= 1E-10
RESTART_ITER= 0
WINDOW_CAUCHY_CRIT= YES
CONV_WINDOW_FIELD= (TAVG_DRAG, TAVG_LIFT)
CONV_WINDOW_STARTITER= 0
CONV_WINDOW_CAUCHY_EPS= 1E-3
CONV_WINDOW_CAUCHY_ELEMS= 10
TIME_DOMAIN= NO
TIME_MARCHING= NO
TIME_STEP= 0.0
MAX_TIME= 50.0
UNST_CFL_NUMBER= 0.0
WINDOW_START_ITER= 500
WINDOW_FUNCTION= SQUARE
UNST_ADJOINT_ITER= 0
% HYBRID_RANSLES= SA_DDES
% DES_CONST= 0.65
MACH_NUMBER= 0.15
AOA= 0
SIDESLIP_ANGLE= 0.0
INIT_OPTION= REYNOLDS
FREESTREAM_OPTION= TEMPERATURE_FS
FREESTREAM_PRESSURE= 101325.0
FREESTREAM_TEMPERATURE= 288.15
% FREESTREAM_TEMPERATURE_VE= 288.15
REYNOLDS_NUMBER= 6.0E6
REYNOLDS_LENGTH= 1.0
% FREESTREAM_DENSITY= 1.2886
% FREESTREAM_VELOCITY= ( 1.0, 0.00, 0.00 )
% FREESTREAM_VISCOSITY= 1.853E-5
FREESTREAM_TURBULENCEINTENSITY= 0.00013
FREESTREAM_INTERMITTENCY= 1.0
TURB_FIXED_VALUES= NO
TURB_FIXED_VALUES_DOMAIN= -1.0
FREESTREAM_TURB2LAMVISCRATIO= 10.0
REF_DIMENSIONALIZATION= FREESTREAM_VEL_EQ_ONE
% INC_DENSITY_MODEL= CONSTANT
% INC_ENERGY_EQUATION= NO
% INC_DENSITY_INIT= 1.2886
% INC_VELOCITY_INIT= ( 1.0, 0.0, 0.0 )
% INC_TEMPERATURE_INIT= 288.15
% INC_NONDIM= INITIAL_VALUES
% INC_DENSITY_REF= 1.0
% INC_VELOCITY_REF= 1.0
% INC_TEMPERATURE_REF= 1.0
% INC_INLET_TYPE= VELOCITY_INLET
% INC_INLET_DAMPING= 0.1
% INC_INLET_USENORMAL= NO
% INC_OUTLET_TYPE= PRESSURE_OUTLET
% INC_OUTLET_DAMPING= 0.1
% BULK_MODULUS= 1.42E5
% BETA_FACTOR= 4.1
% MATERIAL_DENSITY= 2710.0
% FIXED_CL_MODE= NO
% TARGET_CL= 0.80
% DCL_DALPHA= 0.2
% UPDATE_AOA_ITER_LIMIT= 100
% UPDATE_IH= 5
% ITER_DCL_DALPHA= 500
% EVAL_DOF_DCX= NO
% NETTHRUST_DBCTHRUST= 1.0
% DCD_DCL_VALUE= 0.0
% DCMX_DCL_VALUE= 0.0
% DCMY_DCL_VALUE= 0.0
% DCMZ_DCL_VALUE= 0.0
REF_ORIGIN_MOMENT_X= 0.25
REF_ORIGIN_MOMENT_Y= 0.00
REF_ORIGIN_MOMENT_Z= 0.00
REF_LENGTH= 1.0
REF_VELOCITY= 1.0
REF_VISCOSITY= 1.0
REF_AREA= 0.0
SEMI_SPAN= 0.0
FLUID_MODEL= STANDARD_AIR
% FLUID_NAME= nitrogen
GAMMA_VALUE= 1.4
GAS_CONSTANT= 287.058
% CRITICAL_TEMPERATURE= 131.00
% CRITICAL_PRESSURE= 3588550.0
% CRITICAL_DENSITY= 263.0
ACENTRIC_FACTOR= 0.035
% THERMODYNAMIC_PRESSURE= 101325.0
SPECIFIC_HEAT_CP= 1004.703
THERMAL_EXPANSION_COEFF= 0.00347
MOLECULAR_WEIGHT= 28.96, 16.043
% CP_POLYCOEFFS= (0.0, 0.0, 0.0, 0.0, 0.0)
% GAS_MODEL= AIR-5
% GAS_COMPOSITION= (0.77, 0.23, 0.0, 0.0, 0.0)
% FROZEN_MIXTURE= NO
% INTERPOLATION_METHOD= MLP
% FILENAMES_INTERPOLATOR= (MLP_1.mlp, MLP_2.mlp, MLP_3.mlp)
% DATADRIVEN_NEWTON_RELAXATION= 0.8
% IONIZATION= NO
% VT_RESIDUAL_LIMITING= NO
% INLET_TEMPERATURE_VE= 288.15
% INLET_GAS_COMPOSITION= (0.77, 0.23, 0.0, 0.0, 0.0)
VISCOSITY_MODEL= SUTHERLAND
MU_CONSTANT= 1.716E-5
MU_REF= 1.716E-5
MU_T_REF= 273.15
SUTHERLAND_CONSTANT= 110.4
MU_POLYCOEFFS= (0.0, 0.0, 0.0, 0.0, 0.0)
CONDUCTIVITY_MODEL= CONSTANT_PRANDTL
% THERMAL_CONDUCTIVITY_CONSTANT= 0.0257
PRANDTL_LAM= 0.72
KT_POLYCOEFFS= (0.0, 0.0, 0.0, 0.0, 0.0)
TURBULENT_CONDUCTIVITY_MODEL= CONSTANT_PRANDTL_TURB
PRANDTL_TURB= 0.90
% GRID_MOVEMENT= NONE
% MACH_MOTION= 0.8
% MOTION_ORIGIN= 0.25 0.0 0.0
% ROTATION_RATE= 0.0 0.0 0.0
% PITCHING_OMEGA= 0.0 0.0 0.0
% PITCHING_AMPL= 0.0 0.0 0.0
% PITCHING_PHASE= 0.0 0.0 0.0
% TRANSLATION_RATE= 0.0 0.0 0.0
% PLUNGING_OMEGA= 0.0 0.0 0.0
% PLUNGING_AMPL= 0.0 0.0 0.0
% SURFACE_MOVEMENT= NONE
MARKER_MOVING= ( NONE )
% SURFACE_MOTION_ORIGIN= 0.25
% SURFACE_ROTATION_RATE= 0.0 0.0 0.0
% SURFACE_PITCHING_OMEGA= 0.0 0.0 0.0
% SURFACE_PITCHING_AMPL= 0.0 0.0 0.0
% SURFACE_PITCHING_PHASE= 0.0 0.0 0.0
% SURFACE_TRANSLATION_RATE= 0.0 0.0 0.0
% SURFACE_PLUNGING_OMEGA= 0.0 0.0 0.0
% SURFACE_PLUNGING_AMPL= 0.0 0.0 0.0
% MOVE_MOTION_ORIGIN= 0
% BUFFET_MONITORING= NO
BUFFET_K= 10.0
BUFFET_LAMBDA= 0.0
FLUTTER_SPEED_INDEX= 0.6
PLUNGE_NATURAL_FREQUENCY= 100
PITCH_NATURAL_FREQUENCY= 100
% AIRFOIL_MASS_RATIO= 60
% CG_LOCATION= 1.8
% RADIUS_GYRATION_SQUARED= 3.48
% AEROELASTIC_ITER= 3
% WIND_GUST= NO
% GUST_TYPE= NONE
% GUST_DIR= Y_DIR
% GUST_WAVELENGTH= 10.0
% GUST_PERIODS= 1.0
% GUST_AMPL= 10.0
% GUST_BEGIN_TIME= 0.0
% GUST_BEGIN_LOC= 0.0
% EQUIV_AREA= NO
% EA_INT_LIMIT= ( 1.6, 2.9, 1.0 )
% EA_SCALE_FACTOR= 1.0
% FIX_AZIMUTHAL_LINE= 90.0
% DRAG_IN_SONICBOOM= 0.0
% ENGINE= NO
% HIGHLITE_AREA= 1.0
% FAN_POLY_EFF= 1.0
% ENGINE_HALF_MODEL= NO
% DAMP_ENGINE_INFLOW= 0.95
% DAMP_ENGINE_EXHAUST= 0.95
% ENGINE_NU_FACTOR= 3.0
% ACTDISK_JUMP= DIFFERENCE
% ACTDISK_SECONDARY_FLOW= 0.0
% ACTDISK_DOUBLE_SURFACE= NO
% UPDATE_BCTHRUST= 100
% INITIAL_BCTHRUST= 4000.0
% SUBSONIC_ENGINE= NO
% SUBSONIC_ENGINE_CYL= ( 0.0, 0.0, 0.0, 1.0, 0.0 , 0.0, 1.0 )
% SUBSONIC_ENGINE_VALUES= ( 0.4, 0.0, 0.0, 2116.216, 518.67 )
% DISTORTION_RACK= (0.0, 0.0)
% TURBOMACHINERY_KIND= CENTRIPETAL CENTRIPETAL_AXIAL
% TURBO_PERF_KIND= TURBINE TURBINE
% MIXINGPLANE_INTERFACE_KIND= LINEAR_INTERPOLATION
% TURBULENT_MIXINGPLANE= YES
% RAMP_OUTLET_PRESSURE= NO
% RAMP_OUTLET_PRESSURE_COEFF= (400000.0, 10.0, 500)
% RAMP_ROTATING_FRAME= YES
% RAMP_ROTATING_FRAME_COEFF= (0.0, 39.0, 500)
% AVERAGE_PROCESS_KIND= MIXEDOUT
% PERFORMANCE_AVERAGE_PROCESS_KIND= MIXEDOUT
% MIXEDOUT_COEFF= (1.0, 1.0E-05, 15)
% AVERAGE_MACH_LIMIT= 0.05
% TIME_INSTANCES= 1
% HB_PERIOD= -1.0
% HB_PRECONDITION= NO
% OMEGA_HB= (0,1.0,-1.0)
% SINGLEZONE_DRIVER= NO
% SPECIAL_OUTPUT= NO
% RADIATION_MODEL= NONE
% P1_INITIALIZATION= TEMPERATURE_INIT
% ABSORPTION_COEFF= 1.0
% SCATTERING_COEFF= 0.0
% HEAT_SOURCE= NO
% HEAT_SOURCE_VAL= 1.0E6
% HEAT_SOURCE_ROTATION_Z= 0.0
% HEAT_SOURCE_CENTER= ( 0.0, 0.0, 0.0 )
% HEAT_SOURCE_AXES= ( 1.0, 1.0, 1.0 )
% MARKER_EMISSIVITY= ( MARKER_NAME, 1.0 )
% CFL_NUMBER_RAD= 1.0E3
% TIME_DISCRE_RADIATION= EULER_IMPLICIT
% KIND_SCALAR_MODEL= NONE
% MIXING_VISCOSITY_MODEL= DAVIDSON
% DIFFUSIVITY_MODEL= CONSTANT_DIFFUSIVITY
% DIFFUSIVITY_CONSTANT= 0.001
% SCHMIDT_NUMBER_LAMINAR= 1.0
% SCHMIDT_NUMBER_TURBULENT= 0.7
% CONSTANT_LEWIS_NUMBER= (1,1,1)
% MARKER_INLET_SPECIES= (inlet, 0.5, ..., inlet2, 0.6, ...)
% CONV_NUM_METHOD_SPECIES= SCALAR_UPWIND
% MUSCL_SPECIES= NO
% SLOPE_LIMITER_SPECIES= NONE
% TIME_DISCRE_SPECIES= EULER_IMPLICIT
% CFL_REDUCTION_SPECIES= 1.0
% SPECIES_INIT= 1.0
% SPECIES_CLIPPING= NO
% SPECIES_CLIPPING_MAX= 1.0
% SPECIES_CLIPPING_MIN= 0.0
% USER_SCALAR_NAMES= (Y-CO)
% USER_SOURCE_NAMES= ( ProdRateTot_Y-CO,  zero)
% LOOKUP_NAMES= (MolarWeightMix, Conductivity, HeatRelease, Diffusivity)
% CONTROLLING_VARIABLE_NAMES= (ProgressVariable, EnthalpyTot)
% CONTROLLING_VARIABLE_SOURCE_NAMES= (ProdRateTot_PV, NULL)
% FLAME_INIT= (0.004, 0.0, 0.0, 1.0, 0.0, 0.0, 0.2e-3, 1.0)
% INV_DESIGN_CP= NO
% INV_DESIGN_HEATFLUX= NO
% BODY_FORCE= NO
% BODY_FORCE_VECTOR= ( 0.0, 0.0, 0.0 )
% VORTICITY_CONFINEMENT= NO
% CONFINEMENT_PARAM= 0.00
% KIND_STREAMWISE_PERIODIC= NONE
% STREAMWISE_PERIODIC_PRESSURE_DROP= 1.0
% STREAMWISE_PERIODIC_MASSFLOW= 0.0
% STREAMWISE_PERIODIC_TEMPERATURE= NO
% STREAMWISE_PERIODIC_OUTLET_HEAT= 0.0
MARKER_EULER= ( NONE )
MARKER_HEATFLUX= ( airfoil, 0.0 )
MARKER_HEATTRANSFER= ( NONE )
MARKER_ISOTHERMAL= ( NONE )
MARKER_FAR= ( farfield )
MARKER_SYM= ( NONE )
MARKER_INTERNAL= ( NONE )
MARKER_NEARFIELD= ( NONE )
INLET_TYPE= TOTAL_CONDITIONS
SPECIFIED_INLET_PROFILE= NO
% INLET_FILENAME= inlet.dat
% INLET_INTERPOLATION_FUNCTION= NONE
% INLET_INTERPOLATION_DATA_TYPE= VRVTHETA
% PRINT_INLET_INTERPOLATED_DATA= NO
MARKER_INLET= ( NONE )
MARKER_OUTLET= ( NONE )
ACTDISK_TYPE= VARIABLES_JUMP
MARKER_ACTDISK= ( NONE )
MARKER_ACTDISK_BEM_CG= ( NONE )
MARKER_ACTDISK_BEM_AXIS= ( NONE )
ACTDISK_FILENAME= actuatordisk.dat
BEM_PROP_FILENAME= prop_geom_alfclcd_data.txt
BEM_PROP_BLADE_ANGLE= 25.0
BEM_FREQ= 40
MARKER_SUPERSONIC_INLET= ( NONE )
MARKER_SUPERSONIC_OUTLET= ( NONE )
MARKER_PERIODIC= ( NONE )
ENGINE_INFLOW_TYPE= FAN_FACE_MACH
MARKER_ENGINE_INFLOW= ( NONE )
MARKER_ENGINE_EXHAUST= ( NONE )
MARKER_NORMAL_DISPL= ( NONE )
MARKER_PRESSURE= ( NONE )
MARKER_RIEMANN= ( NONE )
MARKER_SHROUD= (NONE)
MARKER_ZONE_INTERFACE= ( NONE )
MARKER_CHT_INTERFACE= ( NONE )
MARKER_FLUID_INTERFACE= ( NONE )
MARKER_FLUID_LOAD= ( NONE )
KIND_INTERPOLATION= NEAREST_NEIGHBOR
% CONSERVATIVE_INTERPOLATION= YES
% KIND_RADIAL_BASIS_FUNCTION= WENDLAND_C2
RADIAL_BASIS_FUNCTION_PARAMETER= 0.015
RADIAL_BASIS_FUNCTION_POLYNOMIAL_TERM= YES
RADIAL_BASIS_FUNCTION_PRUNE_TOLERANCE= 0
MARKER_TURBOMACHINERY= ( NONE )
% NUM_SPANWISE_SECTIONS= 1
% SPANWISE_KIND= 1
MARKER_MIXINGPLANE_INTERFACE= ( NONE )
MARKER_GILES= ( NONE )
GILES_EXTRA_RELAXFACTOR= ( 0.05, 0.05)
SPATIAL_FOURIER= NO
CATALYTIC_WALL= ( NONE )
SUPERCATALYTIC_WALL= NO
SUPERCATALYTIC_WALL_COMPOSITION= (0,0,0)
CATALYTIC_EFFICIENCY= 0.2
% MARKER_INLET_TURBULENT= (inlet1, 0.05, 15, inlet2, 0.02, ...)
MARKER_CUSTOM= ( NONE )
MARKER_SMOLUCHOWSKI_MAXWELL= ( NONE )
MARKER_CLAMPED= ( NONE )
MARKER_DAMPER= ( NONE )
MARKER_LOAD= ( NONE )
SINE_LOAD= NO
SINE_LOAD_COEFF= (0.0, 0.0, 0.0)
RAMP_AND_RELEASE_LOAD= NO
RAMP_LOADING= NO
RAMP_TIME= 1.0
RAMP_FSI_ITER= 2
STAT_RELAX_PARAMETER= 0.4
AITKEN_DYN_MAX_INITIAL= 0.5
AITKEN_DYN_MIN_INITIAL= 0.5
BGS_RELAXATION= NONE
RELAXATION= NO
DYNAMIC_LOAD_TRANSFER= RAMP
MARKER_DISPLACEMENT= ( NONE )
% WALL_ROUGHNESS= (wall1, ks1, wall2, ks2)
WALLMODEL_KAPPA= 0.41
WALLMODEL_B= 5.5
WALLMODEL_MINYPLUS= 5.0
WALLMODEL_MAXITER= 200
WALLMODEL_RELFAC= 0.5
RELAXATION_FACTOR_CHT= 1.0
% CHT_COUPLING_METHOD= DIRECT_TEMPERATURE_ROBIN_HEATFLUX
MARKER_PLOTTING= ( airfoil )
MARKER_MONITORING= ( airfoil )
% MARKER_WALL_FUNCTIONS= ( airfoil, NO_WALL_FUNCTION )
MARKER_PYTHON_CUSTOM= ( NONE )
MARKER_DESIGNING= ( airfoil )
MARKER_ANALYZE= ( airfoil )
MARKER_ANALYZE_AVERAGE= MASSFLUX
NUM_METHOD_GRAD= GREEN_GAUSS
NUM_METHOD_GRAD_RECON= NONE %LEAST_SQUARES
CFL_NUMBER= 1
CFL_ADAPT= NO
% CFL_ADAPT_PARAM= ( 0.1, 2.0, 10.0, 1e10, 0.001 )
CFL_ADAPT_PARAM= ( 0.99, 1.1, 1, 1e3, 0.0001 )
MAX_DELTA_TIME= 1E6
EXT_ITER_OFFSET= 0
RK_ALPHA_COEFF= ( 0.66667, 0.66667, 1.000000 )
OBJECTIVE_FUNCTION= DRAG
OBJECTIVE_WEIGHT= 1.0
CUSTOM_OBJFUNC= 'DRAG + 10 * pow(fmax(0.4-LIFT, 0), 2)'
MUSCL_FLOW= YES
SLOPE_LIMITER_FLOW= VENKATAKRISHNAN
MUSCL_TURB= YES
SLOPE_LIMITER_TURB= VENKATAKRISHNAN
MUSCL_ADJFLOW= NO
SLOPE_LIMITER_ADJFLOW= VENKATAKRISHNAN
MUSCL_ADJTURB= NO
SLOPE_LIMITER_ADJTURB= VENKATAKRISHNAN
VENKAT_LIMITER_COEFF= 0.05
REF_SHARP_EDGES= 3.0
ADJ_SHARP_LIMITER_COEFF= 3.0
SENS_REMOVE_SHARP= NO
SENS_SMOOTHING= NONE
LIMITER_ITER= 999999
LAX_SENSOR_COEFF= 0.15
JST_SENSOR_COEFF= ( 0.5, 0.02 )
ADJ_LAX_SENSOR_COEFF= 0.15
ADJ_JST_SENSOR_COEFF= ( 0.5, 0.02 )
LINEAR_SOLVER= FGMRES
DISCADJ_LIN_SOLVER= FGMRES
% ADJTURB_LIN_SOLVER= FGMRES
% ADJTURB_LIN_PREC= ILU
% ADJTURB_LIN_ITER= 10
LINEAR_SOLVER_PREC= LU_SGS
DISCADJ_LIN_PREC= ILU
LINEAR_SOLVER_ILU_FILL_IN= 0
LINEAR_SOLVER_ERROR= 1E-6
LINEAR_SOLVER_ITER= 5
LINEAR_SOLVER_RESTART_FREQUENCY= 10
LINEAR_SOLVER_SMOOTHER_RELAXATION= 1.0
MGLEVEL= 0
MGCYCLE= V_CYCLE
MG_PRE_SMOOTH= ( 1, 2, 3, 3 )
MG_POST_SMOOTH= ( 0, 0, 0, 0 )
MG_CORRECTION_SMOOTH= ( 0, 0, 0, 0 )
MG_DAMP_RESTRICTION= 0.75
MG_DAMP_PROLONGATION= 0.75
SMOOTH_GEOMETRY= 0
CONV_NUM_METHOD_FLOW= ROE
% ROE_LOW_DISSIPATION= FD
ROE_KAPPA= 0.5
MIN_ROE_TURKEL_PREC= 0.01
MAX_ROE_TURKEL_PREC= 0.2
LOW_MACH_CORR= NO
LOW_MACH_PREC= NO
USE_ACCURATE_FLUX_JACOBIANS= NO
USE_VECTORIZATION= YES
ENTROPY_FIX_COEFF= 0.0
CENTRAL_JACOBIAN_FIX_FACTOR= 4.0
CENTRAL_INC_JACOBIAN_FIX_FACTOR= 1.0
TIME_DISCRE_FLOW= EULER_IMPLICIT
NEWTON_KRYLOV= NO
NEWTON_KRYLOV_IPARAM= (10, 3, 2)
NEWTON_KRYLOV_DPARAM= (1.0, 0.1, -6.0, 1e-5)
NUM_METHOD_FEM_FLOW= DG
RIEMANN_SOLVER_FEM= ROE
QUADRATURE_FACTOR_STRAIGHT_FEM= 2.0
QUADRATURE_FACTOR_CURVED_FEM= 3.0
THETA_INTERIOR_PENALTY_DG_FEM= 1.0
COMPUTE_ENTROPY_FLUID_MODEL= YES
USE_LUMPED_MASSMATRIX_DGFEM= NO
JACOBIAN_SPATIAL_DISCRETIZATION_ONLY= NO
ALIGNED_BYTES_MATMUL= 128
TIME_DISCRE_FEM_FLOW= RUNGE-KUTTA_EXPLICIT
TIME_DOFS_ADER_DG= 2
ADER_PREDICTOR= ADER_ALIASED_PREDICTOR
LEVELS_TIME_ACCURATE_LTS= 1
KIND_MATRIX_COLORING= GREEDY_COLORING
KIND_FEM_DG_SHOCK= NONE
TOPOLOGY_OPTIMIZATION= NO
TOPOL_OPTIM_OUTFILE= element_derivatives.dat
TOPOL_OPTIM_SIMP_EXPONENT= 1.0
TOPOL_OPTIM_SIMP_MINSTIFF= 0.001
TOPOL_OPTIM_FILTER_KERNEL= (DILATE, ERODE)
TOPOL_OPTIM_FILTER_RADIUS= 0.0
TOPOL_OPTIM_KERNEL_PARAM= 0.01
TOPOL_OPTIM_SEARCH_LIMIT= 0
TOPOL_OPTIM_PROJECTION_TYPE= NO_PROJECTION
TOPOL_OPTIM_PROJECTION_PARAM= 0.0
FEA_FILENAME= default_element_properties.dat
FEA_ADVANCED_MODE= NO
ELASTICITY_MODULUS= 1000.0
POISSON_RATIO= 0.35
KNOWLES_B= 1.0
KNOWLES_N= 1.0
FEA_ID_DIRECTDIFF= 0
RESTART_STEADY_STATE= NO
TIME_DISCRE_FEA= NEWMARK_IMPLICIT
NEWMARK_BETA= 0.25
NEWMARK_GAMMA= 0.50
TIME_INT_STRUCT_COEFFS= 0.0
INCREMENTAL_LOAD= NO
NUMBER_INCREMENTS= 10
INCREMENTAL_CRITERIA= (0.0, 0.0, 0.0)
PREDICTOR= NO
PREDICTOR_ORDER= 0
GEOMETRIC_CONDITIONS= SMALL_DEFORMATIONS
MATERIAL_MODEL= LINEAR_ELASTIC
MATERIAL_COMPRESSIBILITY= COMPRESSIBLE
DE_EFFECTS= NO
ELECTRIC_FIELD_CONST= 4.25e-11
ELECTRIC_FIELD_MOD= 20e5
ELECTRIC_FIELD_DIR= (0.0, 1.0)
WEAKLY_COUPLED_HEAT_EQUATION= NO
CONV_NUM_METHOD_TURB= SCALAR_UPWIND
TIME_DISCRE_TURB= EULER_IMPLICIT
CFL_REDUCTION_TURB= 1.0
% THERMAL_DIFFUSIVITY= 1.0
CONV_NUM_METHOD_HEAT= SCALAR_UPWIND
MUSCL_HEAT= YES
SLOPE_LIMITER_HEAT= NONE
TIME_DISCRE_HEAT= EULER_IMPLICIT
FROZEN_LIMITER_DISC= NO
FROZEN_VISC_DISC= NO
INCONSISTENT_DISC= NO
CONV_NUM_METHOD_ADJFLOW= JST
TIME_DISCRE_ADJFLOW= EULER_IMPLICIT
RELAXATION_FACTOR_ADJOINT= 1.0
QUASI_NEWTON_NUM_SAMPLES= 20
CFL_REDUCTION_ADJFLOW= 0.8
LIMIT_ADJFLOW= 1E6
MG_ADJFLOW= YES
MULTIZONE_MESH= YES
MULTIZONE_RESIDUAL= NO
WRT_ZONE_CONV= NO
WRT_ZONE_HIST= NO
% CONV_NUM_METHOD_ADJTURB= SCALAR_UPWIND
% TIME_DISCRE_ADJTURB= EULER_IMPLICIT
% CFL_REDUCTION_ADJTURB= 0.01
% TRANSPORT_COEFF_MODEL= WILKE
% GEO_MARKER= ( airfoil )
% GEO_DESCRIPTION= AIRFOIL
% GEO_WATERLINE_LOCATION= 0.0
% GEO_LOCATION_STATIONS= (0.0, 0.5, 1.0)
% GEO_NACELLE_LOCATION= (0.0, 0.0, 0.0, 0.0, 0.0)
% GEO_BOUNDS= (1.5, 3.5)
% GEO_PLOT_STATIONS= NO
% GEO_NUMBER_STATIONS= 25
% GEO_MODE= FUNCTION
% DV_KIND= FFD_SETTING
% DV_MARKER= ( ( airfoil ) )
% DV_PARAM= ( 1, 0.5) 
% DV_VALUE= 0
% DV_FILENAME= surface_positions.dat
% DV_SENS_FILENAME= surface_sensitivity.dat
% DV_SENSITIVITY_FORMAT= SU2_NATIVE
% DV_UNORDERED_SENS_FILENAME= unordered_sensitivity.dat
% HOLD_GRID_FIXED= NO
% HOLD_GRID_FIXED_COORDS= (-1e15, -1e15, -1e15, 1e15, 1e15, 1e15)
DESIGN_VARIABLE_FEA= NONE
TOTAL_DV_PENALTY= 0.0
STRESS_PENALTY_PARAM= (1.0, 10.0)
PREACC= YES
PRESTRETCH= NO
PRESTRETCH_FILENAME= prestretch_file.dat
NONLINEAR_FEM_SOLUTION_METHOD= NEWTON_RAPHSON
FORMULATION_ELASTICITY_2D= PLANE_STRAIN
DEAD_LOAD= NO
PSEUDO_STATIC= NO
% DYNAMIC_ANALYSIS= NO
% DYN_TIMESTEP= 0.0
% DYN_TIME= 1.0
% DEFORM_MESH= YES
MARKER_DEFORM_MESH= ( airfoil )
MARKER_DEFORM_MESH_SYM_PLANE= ( wall )
% DEFORM_LINEAR_SOLVER= FGMRES
% DEFORM_LINEAR_SOLVER_PREC= ILU
% DEFORM_LINEAR_SOLVER_ITER= 1000
% DEFORM_NONLINEAR_ITER= 1
% DEFORM_LINEAR_SOLVER_ERROR= 1E-14
% DEFORM_CONSOLE_OUTPUT= YES
% DEFORM_COEFF= 1E6
% DEFORM_STIFFNESS_TYPE= WALL_DISTANCE
% DEFORM_LIMIT= 1E6
% DEFORM_ELASTICITY_MODULUS= 2e11
% DEFORM_POISSON_RATIO= 0.3
% DEFORM_STIFF_LAYER_SIZE= 0.0
% REFERENCE_GEOMETRY= NO
% REFERENCE_GEOMETRY_PENALTY= 1.0E6
% REFERENCE_GEOMETRY_FILENAME= reference_geometry.dat
% REFERENCE_GEOMETRY_FORMAT= SU2_REF
% REFERENCE_GEOMETRY_SURFACE= NO
% REFERENCE_NODE= 0
% REFERENCE_NODE_DISPLACEMENT= (0.0, 0.0)
% REFERENCE_NODE_PENALTY= 1.0E3
% FFD_TOLERANCE= 1E-10
% FFD_ITERATIONS= 500
% FFD_INTPREV= YES
% FFD_INTPREV_ITER= 10
% FFD_INTPREV_DEPTH= 3
% CONVEXITY_CHECK= YES
% CONVEXITY_CHECK_ITER= 10
% CONVEXITY_CHECK_DEPTH= 3
% FFD_DEFINITION= (MAIN_BOX, 0.5, 0.25, -0.25, 1.5, 0.25, -0.25, 1.5, 0.75, -0.25, 0.5, 0.75, -0.25, 0.5, 0.25, 0.25, 1.5, 0.25, 0.25, 1.5, 0.75, 0.25, 0.5, 0.75, 0.25)
% FFD_DEGREE= (10, 10, 1)
% FFD_CONTINUITY= 2ND_DERIVATIVE
% FFD_FIX_I= (0,2,3)
% FFD_FIX_J= (0,2,3)
% FFD_FIX_K= (0,2,3)
% FFD_SYMMETRY_PLANE= NO
% FFD_COORD_SYSTEM= CARTESIAN
% FFD_AXIS= (0.0, 0.0, 0.0)
% FFD_BLENDING= BEZIER
% FFD_BSPLINE_ORDER= 2, 2, 2
% UQ_COMPONENT= 1
% UQ_PERMUTE= NO
% UQ_URLX= 0.1
% UQ_DELTA_B= 1.0
% EDGE_COLORING_GROUP_SIZE= 512
% EDGE_COLORING_RELAX_DISC_ADJ= YES
% LINEAR_SOLVER_PREC_THREADS= 0
% PARMETIS_TOLERANCE= 0.02
% PARMETIS_EDGE_WEIGHT= 1
% PARMETIS_POINT_WEIGHT= 0
% SMOOTH_GRADIENT= NO
% SOBOLEV_MODE= NO_MODUS
% SMOOTHING_EPSILON1= 1.0
% SMOOTHING_EPSILON2= 1.0
% SMOOTH_ON_SURFACE= NO
% SEPARATE_DIMENSIONS= NO
% DIRICHLET_SURFACE_BOUNDARY= NO
% MARKER_SOBOLEVBC= ( airfoil )
% HESS_OBJFUNC_FILENAME= of_hess.dat
% GRAD_LINEAR_SOLVER= FGMRES
% GRAD_LINEAR_SOLVER_PREC= ILU
% GRAD_LINEAR_SOLVER_ITER= 1000
% GRAD_LINEAR_SOLVER_ERROR= 1E-14
% SCREEN_OUTPUT= (INNER_ITER, RMS_DENSITY, RMS_MOMENTUM-X, RMS_MOMENTUM-Y, RMS_ENERGY)
% HISTORY_OUTPUT= ITER, RMS_RES
SCREEN_OUTPUT= (INNER_ITER, WALL_TIME, RMS_DENSITY, CAUCHY, RMS_INTERMITTENCY, RMS_RE_THETA_T, LINSOL_ITER_TRANS, LINSOL_RESIDUAL_TRANS, LIFT, DRAG)
HISTORY_OUTPUT= (ITER, TIME_DOMAIN, ,WALL_TIME, LINSOL, RMS_RES, CAUCHY, MAX_RES, AERO_COEFF, AOA, CFL_NUMBER, FLOW_COEFF, AERO_COEFF_SURF)
CUSTOM_OUTPUTS= ''
VOLUME_OUTPUT= (COORDINATES, SOLUTION, PRIMITIVE, RESIDUAL, LIMITER, VORTEX_IDENTIFICATION, TIMESTEP, MESH_QUALITY, MPI, MULTIGRID)
SCREEN_WRT_FREQ_INNER= 1
SCREEN_WRT_FREQ_OUTER= 1
SCREEN_WRT_FREQ_TIME= 1
HISTORY_WRT_FREQ_INNER= 1
HISTORY_WRT_FREQ_OUTER= 1
HISTORY_WRT_FREQ_TIME= 1
OUTPUT_WRT_FREQ= 250
WRT_PERFORMANCE= YES
WRT_AD_STATISTICS= NO
WRT_RESTART_OVERWRITE= YES
WRT_SURFACE_OVERWRITE= YES
WRT_VOLUME_OVERWRITE= YES
WRT_FORCES_BREAKDOWN= YES
COMM_LEVEL= FULL
VISUALIZE_CV= -1
EXTRA_OUTPUT= YES
EXTRA_HEAT_ZONE_OUTPUT= -1
MESH_FILENAME= /home/juan/DAAL/SU2/Test/NACA0012/DAAL_Mesh/NACA0012-tmrbased-v1.su2
MESH_FORMAT= SU2
% MESH_BOX_SIZE= (33, 33, 33)
% MESH_BOX_LENGTH= (1.0, 1.0, 1.0)
% MESH_BOX_OFFSET= (0.0, 0.0, 0.0)
MESH_OUT_FILENAME= mesh_out.su2
SOLUTION_FILENAME= flow_restSol_.dat
SOLUTION_ADJ_FILENAME= flow_sol_adj.dat
TABULAR_FORMAT= TECPLOT
OUTPUT_FILES= (RESTART, RESTART_ASCII, SURFACE_CSV, SURFACE_TECPLOT, SURFACE_TECPLOT_ASCII, CSV, TECPLOT, TECPLOT_ASCII)
CONV_FILENAME= flow_conv_.
BREAKDOWN_FILENAME= forces_bdwn_.dat
RESTART_FILENAME= flow_rest_.dat
RESTART_ADJ_FILENAME= flow_rest_adj_.dat
VOLUME_FILENAME= flow_vol_.
VOLUME_ADJ_FILENAME= flow_vol_adj_.
VALUE_OBJFUNC_FILENAME= of_eval.dat
GRAD_OBJFUNC_FILENAME= of_grad.dat
SURFACE_FILENAME= flow_surf_.
SURFACE_ADJ_FILENAME= flow_surf_adj_.
SURFACE_SENS_FILENAME= flow_surf_sens_.
VOLUME_SENS_FILENAME= flow_vol_sens.
READ_BINARY_RESTART= YES
REORIENT_ELEMENTS= YES
% SOLUTION_FILENAME= solution_flow.dat
% SOLUTION_ADJ_FILENAME= solution_adj.dat
% TABULAR_FORMAT= CSV
% OUTPUT_PRECISION= 10
% OUTPUT_FILES= (RESTART, PARAVIEW, SURFACE_PARAVIEW)
% CONV_FILENAME= history
% BREAKDOWN_FILENAME= forces_breakdown.dat
% RESTART_FILENAME= restart_flow.dat
% RESTART_ADJ_FILENAME= restart_adj.dat
% VOLUME_FILENAME= flow
% VOLUME_ADJ_FILENAME= adjoint
% VALUE_OBJFUNC_FILENAME= of_eval.dat
% GRAD_OBJFUNC_FILENAME= of_grad.dat
% SURFACE_FILENAME= surface_flow
% SURFACE_ADJ_FILENAME= surface_adjoint
% SURFACE_SENS_FILENAME= surface_sens
% VOLUME_SENS_FILENAME= volume_sens
% READ_BINARY_RESTART= YES
% REORIENT_ELEMENTS= YES
% MULTIPOINT_MACH_NUMBER= (0.79, 0.8, 0.81)
% MULTIPOINT_WEIGHT= (0.33333, 0.33333, 0.33333)
% MULTIPOINT_AOA= (1.25, 1.25, 1.25)
% MULTIPOINT_SIDESLIP_ANGLE= (0.0, 0.0, 0.0)
% MULTIPOINT_TARGET_CL= (0.8, 0.8, 0.8)
% MULTIPOINT_REYNOLDS_NUMBER= (1E6, 1E6, 1E6)
% MULTIPOINT_FREESTREAM_TEMPERATURE= (288.15, 288.15, 288.15)
% MULTIPOINT_FREESTREAM_PRESSURE= (101325.0, 101325.0, 101325.0)
% MULTIPOINT_OUTLET_VALUE= (0.0, 0.0, 0.0)
% MULTIPOINT_MESH_FILENAME= (mesh_NACA0012_m79.su2, mesh_NACA0012_m8.su2, mesh_NACA0012_m81.su2)
% OPT_OBJECTIVE= DRAG * 1.0 
% OPT_CONSTRAINT= ( LIFT > 0.328188 ) * 0.001; ( MOMENT_Z > 0.034068 ) * 0.001; ( AIRFOIL_THICKNESS > 0.11 ) * 0.001
% OPT_GRADIENT_FACTOR= 1E-6
% OPT_RELAX_FACTOR= 1E3
% OPT_ITERATIONS= 100
% OPT_ACCURACY= 1E-10
% OPT_LINE_SEARCH_BOUND= 1E6
% OPT_BOUND_UPPER= 1E10
% OPT_BOUND_LOWER= -1E10
% FIN_DIFF_STEP= 0.001
% DEFINITION_DV= ( 1 , 1.0 | airfoil  | 0.0 , 0.05  ); ( 1 , 1.0 | airfoil  | 0.0 , 0.1  ); ( 1 , 1.0 | airfoil  | 0.0 , 0.15  ); ( 1 , 1.0 | airfoil  | 0.0 , 0.2  ); ( 1 , 1.0 | airfoil  | 0.0 , 0.25  ); ( 1 , 1.0 | airfoil  | 0.0 , 0.3  ); ( 1 , 1.0 | airfoil  | 0.0 , 0.35  ); ( 1 , 1.0 | airfoil  | 0.0 , 0.4  ); ( 1 , 1.0 | airfoil  | 0.0 , 0.45  ); ( 1 , 1.0 | airfoil  | 0.0 , 0.5  ); ( 1 , 1.
% OPT_COMBINE_OBJECTIVE= NO
% ITER_AVERAGE_OBJ= 0
% SAVE_LIBROM= NO
% LIBROM_BASE_FILENAME= su2
% BASIS_GENERATION= STATIC_POD
% MAX_BASIS_DIM= 100
% ROM_SAVE_FREQ= 1
% PASTIX_FACTORIZATION_FREQUENCY= 1
% PASTIX_VERBOSITY_LEVEL= 0
% PASTIX_FILL_LEVEL= 1
% DV_VALUE_NEW= 0
% DV_VALUE_OLD= 0
